examples/DynaSwing/RBTS/RBTS_ACOPF_130_L2_shunt_typical.iidm
<?xml version="1.0" encoding="UTF-8"?>
<iidm:network xmlns:iidm="http://www.powsybl.org/schema/iidm/1_4" id="RBTS_ACOPF_130_L2_shunt_typical" caseDate="2022-03-24T14:07:30.682+01:00" forecastDistance="0" sourceFormat="MATPOWER">
    <iidm:substation id="SUB-1">
        <iidm:voltageLevel id="VL-1" nominalV="230.0" topologyKind="BUS_BREAKER">
            <iidm:busBreakerTopology>
                <iidm:bus id="BUS-1" v="236.89725189087778" angle="5.026888370069796"/>
            </iidm:busBreakerTopology>
            <iidm:generator id="GEN-1" energySource="OTHER" minP="13.9999999999" maxP="40.0000000001" voltageRegulatorOn="true" targetP="14.00000263544589" targetV="236.89725189087778" targetQ="0.0" bus="BUS-1" connectableBus="BUS-1" p="-14.00000263544589" q="-15.999052005447739">
                <iidm:minMaxReactiveLimits minQ="-15.0000000001" maxQ="17.0000000001"/>
            </iidm:generator>
        </iidm:voltageLevel>
    </iidm:substation>
    <iidm:substation id="SUB-2">
        <iidm:voltageLevel id="VL-2" nominalV="230.0" topologyKind="BUS_BREAKER">
            <iidm:busBreakerTopology>
                <iidm:bus id="BUS-2" v="241.49906941421526" angle="25.7143580022981"/>
            </iidm:busBreakerTopology>
            <iidm:generator id="GEN-2" energySource="OTHER" minP="-1.0E-10" maxP="5.0000000001" voltageRegulatorOn="true" targetP="4.328780172800646" targetV="241.49906941421526" targetQ="0.0" bus="BUS-2" connectableBus="BUS-2" p="-4.328780172800646" q="-1.381735838077112">
                <iidm:minMaxReactiveLimits minQ="-1.0E-10" maxQ="5.0000000001"/>
            </iidm:generator>
            <iidm:generator id="GEN-2#0" energySource="OTHER" minP="-1.0E-10" maxP="5.0000000001" voltageRegulatorOn="true" targetP="4.328780172800645" targetV="241.49906941421526" targetQ="0.0" bus="BUS-2" connectableBus="BUS-2" p="-4.328780172800645" q="-1.381735838077112">
                <iidm:minMaxReactiveLimits minQ="-1.0E-10" maxQ="5.0000000001"/>
            </iidm:generator>
            <iidm:generator id="GEN-2#1" energySource="OTHER" minP="-1.0E-10" maxP="40.0000000001" voltageRegulatorOn="true" targetP="39.33409976301087" targetV="241.49906941421526" targetQ="0.0" bus="BUS-2" connectableBus="BUS-2" p="-39.33409976301087" q="-1.381735838077112">
                <iidm:minMaxReactiveLimits minQ="-15.0000000001" maxQ="17.0000000001"/>
            </iidm:generator>
            <iidm:generator id="GEN-2#2" energySource="OTHER" minP="-1.0E-10" maxP="20.0000000001" voltageRegulatorOn="true" targetP="19.341153118690297" targetV="241.49906941421526" targetQ="0.0" bus="BUS-2" connectableBus="BUS-2" p="-19.341153118690297" q="-1.381735838077112">
                <iidm:minMaxReactiveLimits minQ="-7.0000000001" maxQ="12.0000000001"/>
            </iidm:generator>
            <iidm:generator id="GEN-2#3" energySource="OTHER" minP="-1.0E-10" maxP="20.0000000001" voltageRegulatorOn="true" targetP="19.341153118690297" targetV="241.49906941421526" targetQ="0.0" bus="BUS-2" connectableBus="BUS-2" p="-19.341153118690297" q="-1.381735838077112">
                <iidm:minMaxReactiveLimits minQ="-7.0000000001" maxQ="12.0000000001"/>
            </iidm:generator>
            <iidm:generator id="GEN-2#4" energySource="OTHER" minP="-1.0E-10" maxP="20.0000000001" voltageRegulatorOn="true" targetP="19.341153118690297" targetV="241.49906941421526" targetQ="0.0" bus="BUS-2" connectableBus="BUS-2" p="-19.341153118690297" q="-1.381735838077112">
                <iidm:minMaxReactiveLimits minQ="-7.0000000001" maxQ="12.0000000001"/>
            </iidm:generator>
            <iidm:generator id="GEN-2#5" energySource="OTHER" minP="-1.0E-10" maxP="20.0000000001" voltageRegulatorOn="true" targetP="19.341153118690297" targetV="241.49906941421526" targetQ="0.0" bus="BUS-2" connectableBus="BUS-2" p="-19.341153118690297" q="-1.381735838077112">
                <iidm:minMaxReactiveLimits minQ="-7.0000000001" maxQ="12.0000000001"/>
            </iidm:generator>
            <iidm:load id="LOAD-2" loadType="UNDEFINED" p0="14.053" q0="-0.0" bus="BUS-2" connectableBus="BUS-2" p="14.053" q="-0.0"/>
        </iidm:voltageLevel>
    </iidm:substation>
    <iidm:substation id="SUB-3">
        <iidm:voltageLevel id="VL-3" nominalV="230.0" topologyKind="BUS_BREAKER">
            <iidm:busBreakerTopology>
                <iidm:bus id="BUS-3" v="231.9259045656082" angle="0.0"/>
            </iidm:busBreakerTopology>
            <iidm:load id="LOAD-3" loadType="UNDEFINED" p0="59.735" q0="-8.96025" bus="BUS-3" connectableBus="BUS-3" p="59.73500000000001" q="-8.96025"/>
        </iidm:voltageLevel>
    </iidm:substation>
    <iidm:substation id="SUB-4">
        <iidm:voltageLevel id="VL-4" nominalV="230.0" topologyKind="BUS_BREAKER">
            <iidm:busBreakerTopology>
                <iidm:bus id="BUS-4" v="229.3910318585467" angle="2.3362936292802883"/>
            </iidm:busBreakerTopology>
            <iidm:load id="LOAD-4" loadType="UNDEFINED" p0="28.10600000000001" q0="-4.2158999999999995" bus="BUS-4" connectableBus="BUS-4" p="28.10600000000001" q="-4.2158999999999995"/>
        </iidm:voltageLevel>
    </iidm:substation>
    <iidm:substation id="SUB-5">
        <iidm:voltageLevel id="VL-5" nominalV="230.0" topologyKind="BUS_BREAKER">
            <iidm:busBreakerTopology>
                <iidm:bus id="BUS-5" v="230.17794350150055" angle="-0.8267181193049902"/>
            </iidm:busBreakerTopology>
            <iidm:load id="LOAD-5" loadType="UNDEFINED" p0="14.052999999999997" q0="-2.1079500000000007" bus="BUS-5" connectableBus="BUS-5" p="14.052999999999995" q="-2.1079500000000007"/>
        </iidm:voltageLevel>
    </iidm:substation>
    <iidm:substation id="SUB-6">
        <iidm:voltageLevel id="VL-6" nominalV="230.0" topologyKind="BUS_BREAKER">
            <iidm:busBreakerTopology>
                <iidm:bus id="BUS-6" v="229.8059949707542" angle="-2.8184271058790205"/>
            </iidm:busBreakerTopology>
            <iidm:load id="LOAD-6" loadType="UNDEFINED" p0="14.052999999999997" q0="-2.1079500000000007" bus="BUS-6" connectableBus="BUS-6" p="14.052999999999995" q="-2.1079500000000007"/>
        </iidm:voltageLevel>
    </iidm:substation>
    <iidm:line id="LINE-1-3" r="36.183600000000006" x="190.43999999999997" g1="0.0" b1="3.992438563327033E-6" g2="0.0" b2="3.992438563327033E-6" bus1="BUS-1" connectableBus1="BUS-1" voltageLevelId1="VL-1" bus2="BUS-3" connectableBus2="BUS-3" voltageLevelId2="VL-3" p1="25.73634580536549" q1="2.1798044341235365" p2="-25.305563426693432" q2="-0.3513374125510168"/>
    <iidm:line id="LINE-1-3#0" r="36.183600000000006" x="190.43999999999997" g1="0.0" b1="3.992438563327033E-6" g2="0.0" b2="3.992438563327033E-6" bus1="BUS-1" connectableBus1="BUS-1" voltageLevelId1="VL-1" bus2="BUS-3" connectableBus2="BUS-3" voltageLevelId2="VL-3" p1="25.73634580536549" q1="2.1798044341235365" p2="-25.305563426693432" q2="-0.3513374125510168"/>
    <iidm:line id="LINE-2-4" r="120.61200000000002" x="634.8" g1="0.0" b1="1.3308128544423441E-5" g2="0.0" b2="1.3308128544423441E-5" bus1="BUS-2" connectableBus1="BUS-2" voltageLevelId1="VL-2" bus2="BUS-4" connectableBus2="BUS-4" voltageLevelId2="VL-4" p1="35.579591213994384" q1="4.234150105061576" p2="-32.90972588071051" q2="8.341341692212835"/>
    <iidm:line id="LINE-2-4#0" r="120.61200000000002" x="634.8" g1="0.0" b1="1.3308128544423441E-5" g2="0.0" b2="1.3308128544423441E-5" bus1="BUS-2" connectableBus1="BUS-2" voltageLevelId1="VL-2" bus2="BUS-4" connectableBus2="BUS-4" voltageLevelId2="VL-4" p1="35.579591213994384" q1="4.234150105061576" p2="-32.90972588071051" q2="8.341341692212835"/>
    <iidm:line id="LINE-1-2" r="96.48960000000001" x="507.84" g1="0.0" b1="1.0646502835538753E-5" g2="0.0" b2="1.0646502835538753E-5" bus1="BUS-1" connectableBus1="BUS-1" voltageLevelId1="VL-1" bus2="BUS-2" connectableBus2="BUS-2" voltageLevelId2="VL-2" p1="-37.47247105007288" q1="11.639443137200665" p2="40.14419443502605" q2="1.2038506564166327"/>
    <iidm:line id="LINE-3-4" r="24.122400000000003" x="126.96" g1="0.0" b1="2.6616257088846884E-6" g2="0.0" b2="2.6616257088846884E-6" bus1="BUS-3" connectableBus1="BUS-3" voltageLevelId1="VL-3" bus2="BUS-4" connectableBus2="BUS-4" voltageLevelId2="VL-4" p1="-15.573959762518431" q1="7.794817481072938" p2="15.710990584094889" q2="-7.356825878220051"/>
    <iidm:line id="LINE-3-5" r="24.122400000000003" x="126.96" g1="0.0" b1="2.6616257088846884E-6" g2="0.0" b2="2.6616257088846884E-6" bus1="BUS-3" connectableBus1="BUS-3" voltageLevelId1="VL-3" bus2="BUS-5" connectableBus2="BUS-5" voltageLevelId2="VL-5" p1="6.449081293655276" q1="1.8683884856499005" p2="-6.428615001732507" q2="-2.0448569580836886"/>
    <iidm:line id="LINE-4-5" r="24.122400000000003" x="126.96" g1="0.0" b1="2.6616257088846884E-6" g2="0.0" b2="2.6616257088846884E-6" bus1="BUS-4" connectableBus1="BUS-4" voltageLevelId1="VL-4" bus2="BUS-5" connectableBus2="BUS-5" voltageLevelId2="VL-5" p1="22.00317922739589" q1="-5.108887343928871" p2="-21.769919555857843" q2="6.055496478468477"/>
    <iidm:line id="LINE-5-6" r="24.122400000000003" x="126.96" g1="0.0" b1="2.6616257088846884E-6" g2="0.0" b2="2.6616257088846884E-6" bus1="BUS-5" connectableBus1="BUS-5" voltageLevelId1="VL-5" bus2="BUS-6" connectableBus2="BUS-6" voltageLevelId2="VL-6" p1="14.145475855258994" q1="-1.9026127831339268" p2="-14.052960909419438" q2="2.107953031151814"/>
</iidm:network>
